2021-08-02T17:46:28,987  INFO Gbl:63 JVM: 11.0.11; Ubuntu; mixed mode, sharing; 64-bit
2021-08-02T17:46:28,991  INFO Gbl:67 OS: Linux; 5.8.0-63-generic; amd64
2021-08-02T17:46:28,993  INFO Gbl:70 CPU cores: 4
2021-08-02T17:46:29,008  INFO Gbl:71 max. Memory: 1024.0MB (1073741824B)
2021-08-02T17:46:29,019  INFO Gbl:109 MATSim-Build: r2e1ebdd9374731ec45d5e5435ee544ef8db1a6ee (2021-04-10 20:07:43)
2021-08-02T17:46:29,027  INFO ControlerListenerManagerImpl:107 calling notifyStartup on org.matsim.guice.DependencyGraphControlerListener
2021-08-02T17:46:29,067  INFO MemoryObserver:41 used RAM: 83 MB  free: 68 MB  total: 152 MB
2021-08-02T17:46:29,169  INFO ControlerListenerManagerImpl:107 calling notifyStartup on org.matsim.counts.CountsControlerListener
2021-08-02T17:46:29,169  INFO ControlerListenerManagerImpl:107 calling notifyStartup on org.matsim.analysis.ModeStatsControlerListener
2021-08-02T17:46:29,170  INFO ControlerListenerManagerImpl:107 calling notifyStartup on org.matsim.analysis.ScoreStatsControlerListener
2021-08-02T17:46:29,170  INFO ControlerListenerManagerImpl:110 all ControlerStartupListeners called.
2021-08-02T17:46:29,171  INFO ControlerUtils:79 config dump before iterations start
2021-08-02T17:46:29,236  INFO ControlerUtils:83 

<?xml version="1.0" encoding="UTF-8"?>
<!DOCTYPE config SYSTEM "http://www.matsim.org/files/dtd/config_v2.dtd">
<config>
	<module name="JDEQSim" >
		<param name="carSize" value="7.5" />
		<param name="endTime" value="undefined" />
		<param name="flowCapacityFactor" value="1.0" />
		<param name="gapTravelSpeed" value="15.0" />
		<param name="minimumInFlowCapacity" value="1800.0" />
		<param name="squeezeTime" value="1800.0" />
		<param name="storageCapacityFactor" value="1.0" />
	</module>
	<module name="TimeAllocationMutator" >
		<!-- Default:true; Defines whether time mutation changes an activity's duration. -->
		<param name="mutationAffectsDuration" value="true" />
		<!-- Default:1800.0; Defines how many seconds a time mutation can maximally shift a time. -->
		<param name="mutationRange" value="1800.0" />
	</module>
	<module name="changeMode" >
		<!-- Defines whether car availability is considered be considered or not. An agent has no car only if it has no license, or never access to a car. Default: true -->
		<param name="ignoreCarAvailability" value="true" />
		<!-- Defines the mode switch behavior. Possible values [fromAllModesToSpecifiedModes, fromSpecifiedModesToSpecifiedModes] Default: fromSpecifiedModesToSpecifiedModes. -->
		<param name="modeSwitchBehavior" value="fromSpecifiedModesToSpecifiedModes" />
		<!-- Defines all the modes available, including chain-based modes, seperated by commas -->
		<param name="modes" value="car" />
	</module>
	<module name="controler" >
		<!-- Compression algorithm to use when writing out data to files. Possible values: [none, gzip, lz4, zst] -->
		<param name="compressionType" value="gzip" />
		<!-- Sets whether graphs showing some analyses should automatically be generated during the simulation. The generation of graphs usually takes a small amount of time that does not have any weight in big simulations, but add a significant overhead in smaller runs or in test cases where the graphical output is not even requested. -->
		<param name="createGraphs" value="true" />
		<!-- true if at the end of a run, plans, network, config etc should be dumped to a file -->
		<param name="dumpDataAtEnd" value="true" />
		<!-- Default=false. If enabled, the router takes travel times needed for turning moves into account. Cannot be used if the (Fast)AStarLandmarks routing or TravelTimeCalculator.separateModes is enabled. -->
		<param name="enableLinkToLinkRouting" value="false" />
		<!-- Default=xml; Specifies the file format for writing events. Currently supported: [xml, pb, json]
		Multiple values can be specified separated by commas (','). -->
		<param name="eventsFileFormat" value="xml" />
		<!-- Default=0. First Iteration of a simulation. -->
		<param name="firstIteration" value="0" />
		<!-- Default=1000. Last Iteration of a simulation. -->
		<param name="lastIteration" value="0" />
		<!-- Defines which mobility simulation will be used. Currently supported: qsim JDEQSim hermes 
		Depending on the chosen mobsim, you'll have to add additional config modules to configure the corresponding mobsim.
		For 'qsim', add a module 'qsim' to the config. -->
		<param name="mobsim" value="qsim" />
		<param name="outputDirectory" value="./output" />
		<!-- Possible values: failIfDirectoryExists, overwriteExistingFiles, deleteDirectoryIfExists -->
		<param name="overwriteFiles" value="deleteDirectoryIfExists" />
		<!-- The type of routing (least cost path) algorithm used, may have the values: [Dijkstra, AStarLandmarks, FastDijkstra, FastAStarLandmarks, SpeedyALT] -->
		<param name="routingAlgorithmType" value="Dijkstra" />
		<!-- An identifier for the current run which is used as prefix for output files and mentioned in output xml files etc. -->
		<param name="runId" value="null" />
		<!-- Comma-separated list of visualizer output file formats. `transims', `googleearth', and `otfvis'. -->
		<param name="snapshotFormat" value="" />
		<!-- iterationNumber % writeEventsInterval == 0 defines in which iterations events are written to a file. `0' disables events writing completely. -->
		<param name="writeEventsInterval" value="10" />
		<!-- iterationNumber % writePlansInterval == 0 defines (hopefully) in which iterations plans are written to a file. `0' disables plans writing completely.  Some plans in early iterations are always written -->
		<param name="writePlansInterval" value="10" />
		<!-- iterationNumber % writeSnapshotsInterval == 0 defines in which iterations snapshots are written to a file. `0' disables snapshots writing completely -->
		<param name="writeSnapshotsInterval" value="1" />
		<!-- iterationNumber % writeEventsInterval == 0 defines in which iterations trips CSV are written to a file. `0' disables trips writing completely. -->
		<param name="writeTripsInterval" value="10" />
	</module>
	<module name="counts" >
		<!-- Transport modes that will be respected for the counts comparison. 'car' is default, which includes also bussed from the pt simulation module. Use this parameter in combination with 'filterModes' = true! -->
		<param name="analyzedModes" value="car" />
		<!-- Specifies over how many iterations the link volumes should be averaged that are used for the counts comparison. Use 1 or 0 to only use the link volumes of a single iteration. This values cannot be larger than the value specified for writeCountsInterval -->
		<param name="averageCountsOverIterations" value="5" />
		<!-- factor by which to re-scale the simulated values.  necessary when simulation runs with something different from 100%.  needs to be adapted manually -->
		<param name="countsScaleFactor" value="1.0" />
		<!-- distance to distanceFilterCenterNode to include counting stations. The unit of distance is the Euclidean distance implied by the coordinate system -->
		<param name="distanceFilter" value="null" />
		<!-- node id for center node of distance filter -->
		<param name="distanceFilterCenterNode" value="null" />
		<!-- If true, link counts from legs performed on modes not included in the 'analyzedModes' parameter are ignored. -->
		<param name="filterModes" value="false" />
		<!-- The Coordinates Reference System in which the coordinates are expressed in the input file. At import, the coordinates will be converted to the coordinate system defined in "global", and willbe converted back at export. If not specified, no conversion happens. -->
		<param name="inputCRS" value="null" />
		<!-- input file name to counts package -->
		<param name="inputCountsFile" value="null" />
		<!-- possible values: `html', `kml', `txt', `all' -->
		<param name="outputformat" value="txt" />
		<!-- Specifies how often the counts comparison should be calculated and written. -->
		<param name="writeCountsInterval" value="10" />
	</module>
	<module name="facilities" >
		<!-- This defines how facilities should be created. Possible values: none fromFile setInScenario onePerActivityLinkInPlansFile onePerActivityLinkInPlansFileExceptWhenCoordinatesAreGiven onePerActivityLocationInPlansFile  -->
		<param name="facilitiesSource" value="none" />
		<!-- A prefix to be used for auto-generated IDs. -->
		<param name="idPrefix" value="f_auto_" />
		<!-- The Coordinates Reference System in which the coordinates are expressed in the input file. At import, the coordinates will be converted to the coordinate system defined in "global", and willbe converted back at export. If not specified, no conversion happens. -->
		<param name="inputCRS" value="null" />
		<param name="inputFacilitiesFile" value="null" />
		<param name="inputFacilityAttributesFile" value="null" />
		<param name="insistingOnUsingDeprecatedFacilitiesAttributeFile" value="false" />
	</module>
	<module name="global" >
		<param name="coordinateSystem" value="Atlantis" />
		<param name="defaultDelimiter" value=";" />
		<param name="insistingOnDeprecatedConfigVersion" value="true" />
		<!-- "global" number of threads.  This number is used, e.g., for replanning, but NOT in QSim.  This can typically be set to as many cores as you have available, or possibly even slightly more. -->
		<param name="numberOfThreads" value="2" />
		<param name="randomSeed" value="4711" />
	</module>
	<module name="hermes" >
		<!-- Simulation End Time -->
		<param name="endTime" value="30:00:00" />
		<param name="flowCapacityFactor" value="1.0" />
		<param name="mainMode" value="car" />
		<param name="storageCapacityFactor" value="1.0" />
		<!-- time in seconds.  Time after which the frontmost vehicle on a link is called `stuck' if it does not move. Set to Integer.MAX_VALUE to disable this behavior -->
		<param name="stuckTime" value="10" />
		<!-- treats PT as deterministic. PT vehicles will run with a steady speed. Should be used with separate network layers for PT and other network modes. -->
		<param name="useDeterministicPt" value="false" />
	</module>
	<module name="households" >
		<param name="inputFile" value="null" />
		<param name="inputHouseholdAttributesFile" value="null" />
		<param name="insistingOnUsingDeprecatedHouseholdsAttributeFile" value="false" />
	</module>
	<module name="linkStats" >
		<!-- Specifies over how many iterations the link volumes should be averaged that are used for the link statistics. Use 1 or 0 to only use the link volumes of a single iteration. This values cannot be larger than the value specified for writeLinkStatsInterval -->
		<param name="averageLinkStatsOverIterations" value="5" />
		<!-- Specifies how often the link stats should be calculated and written. Use 0 to disable the generation of link stats. -->
		<param name="writeLinkStatsInterval" value="10" />
	</module>
	<module name="network" >
		<!-- The Coordinates Reference System in which the coordinates are expressed in the input file. At import, the coordinates will be converted to the coordinate system defined in "global", and willbe converted back at export. If not specified, no conversion happens. -->
		<param name="inputCRS" value="null" />
		<param name="inputChangeEventsFile" value="null" />
		<param name="inputNetworkFile" value="network.xml" />
		<param name="laneDefinitionsFile" value="null" />
		<param name="timeVariantNetwork" value="false" />
	</module>
	<module name="parallelEventHandling" >
		<!-- Estimated number of events during mobsim run. An optional optimization hint for the framework. -->
		<param name="estimatedNumberOfEvents" value="null" />
		<!-- Size of the events Queue. Increase for very large scenarios -->
		<param name="eventsQueueSize" value="131072" />
		<!-- Number of threads for parallel events handler. _null_ means the framework decides by itself. 0 is currently not possible. -->
		<param name="numberOfThreads" value="null" />
		<!-- If enabled, each event handler is assigned to its own thread. Note that enabling this feature disabled the numberOfThreads option! This feature is still experimental! -->
		<param name="oneThreadPerHandler" value="false" />
		<!-- If enabled, it is ensured that all events that are created during a time step of the mobility simulation are processed before the next time step is simulated. E.g. neccessary when within-day replanning is used. -->
		<param name="synchronizeOnSimSteps" value="true" />
	</module>
	<module name="planCalcScore" >
		<!-- logit model scale parameter. default: 1.  Has name and default value for historical reasons (see Bryan Raney's phd thesis). -->
		<param name="BrainExpBeta" value="1.0" />
		<param name="PathSizeLogitBeta" value="1.0" />
		<!-- fraction of iterations at which MSA score averaging is started. The matsim theory department suggests to use this together with switching off choice set innovation (where a similar switch exists), but it has not been tested yet. -->
		<param name="fractionOfIterationsToStartScoreMSA" value="null" />
		<!-- new_score = (1-learningRate)*old_score + learningRate * score_from_mobsim.  learning rates close to zero emulate score averaging, but slow down initial convergence -->
		<param name="learningRate" value="1.0" />
		<!-- There used to be a plateau between duration=0 and duration=zeroUtilityDuration. This caused durations to evolve to zero once they were below zeroUtilityDuration, causing problems.  Only use this switch if you need to be backwards compatible with some old results.  (changed nov'13) -->
		<param name="usingOldScoringBelowZeroUtilityDuration" value="false" />
		<!-- write a plans file in each iteration directory which contains what each agent actually did, and the score it received. -->
		<param name="writeExperiencedPlans" value="false" />
		<parameterset type="scoringParameters" >
			<param name="earlyDeparture" value="-0.0" />
			<param name="lateArrival" value="-18.0" />
			<param name="marginalUtilityOfMoney" value="1.0" />
			<param name="performing" value="6.0" />
			<param name="subpopulation" value="null" />
			<param name="utilityOfLineSwitch" value="-1.0" />
			<param name="waiting" value="-0.0" />
			<param name="waitingPt" value="-6.0" />
			<parameterset type="activityParams" >
				<param name="activityType" value="home" />
				<param name="closingTime" value="undefined" />
				<param name="earliestEndTime" value="undefined" />
				<param name="latestStartTime" value="undefined" />
				<param name="minimalDuration" value="08:00:00" />
				<param name="openingTime" value="undefined" />
				<param name="priority" value="1.0" />
				<param name="scoringThisActivityAtAll" value="true" />
				<!-- typical duration of activity.  needs to be defined and non-zero.  in sec. -->
				<param name="typicalDuration" value="13:00:00" />
				<!-- method to compute score at typical duration.  Options: | uniform | relative | Use uniform for backwards compatibility (all activities same score; higher proba to drop long acts). -->
				<param name="typicalDurationScoreComputation" value="relative" />
			</parameterset>
			<parameterset type="activityParams" >
				<param name="activityType" value="car interaction" />
				<param name="closingTime" value="undefined" />
				<param name="earliestEndTime" value="undefined" />
				<param name="latestStartTime" value="undefined" />
				<param name="minimalDuration" value="undefined" />
				<param name="openingTime" value="undefined" />
				<param name="priority" value="1.0" />
				<param name="scoringThisActivityAtAll" value="false" />
				<param name="typicalDuration" value="undefined" />
				<param name="typicalDurationScoreComputation" value="relative" />
			</parameterset>
			<parameterset type="modeParams" >
				<!-- [utils] alternative-specific constant.  Normally per trip, but that is probably buggy for multi-leg trips. -->
				<param name="constant" value="0.0" />
				<!-- [money] daily monetary constant. default=0 to be backwards compatible -->
				<param name="dailyMonetaryConstant" value="0.0" />
				<!-- [utils] daily utility constant. default=0 to be backwards compatible -->
				<param name="dailyUtilityConstant" value="0.0" />
				<!-- [utils/m] utility of traveling (e.g. walking or driving) per m, normally negative.  this is on top of the time (dis)utility. -->
				<param name="marginalUtilityOfDistance_util_m" value="0.0" />
				<!-- [utils/hr] additional marginal utility of traveling.  normally negative.  this comes on top of the opportunity cost of time -->
				<param name="marginalUtilityOfTraveling_util_hr" value="-6.0" />
				<param name="mode" value="car" />
				<!-- [unit_of_money/m] conversion of distance into money. Normally negative. -->
				<param name="monetaryDistanceRate" value="0.0" />
			</parameterset>
		</parameterset>
	</module>
	<module name="plans" >
		<!-- String: minOfDurationAndEndTime tryEndTimeThenDuration endTimeOnly. Anything besides minOfDurationAndEndTime will internally use a different (simpler) version of the TimeAllocationMutator. -->
		<param name="activityDurationInterpretation" value="tryEndTimeThenDuration" />
		<!-- Possible values: reject, useMainModeIdentifier -->
		<param name="handlingOfPlansWithoutRoutingMode" value="reject" />
		<!-- The Coordinates Reference System in which the coordinates are expressed in the input file. At import, the coordinates will be converted to the coordinate system defined in "global", and willbe converted back at export. If not specified, no conversion happens. -->
		<param name="inputCRS" value="null" />
		<param name="inputPersonAttributesFile" value="null" />
		<param name="inputPlansFile" value="population.xml" />
		<param name="insistingOnUsingDeprecatedPersonAttributeFile" value="false" />
		<!-- Defines how routes are stored in memory. Currently supported: LinkNetworkRoute, CompressedNetworkRoute. -->
		<param name="networkRouteType" value="LinkNetworkRoute" />
		<!-- (not tested) will remove plan attributes that are presumably not used, such as activityStartTime. default=false. Use with Caution! -->
		<param name="removingUnnecessaryPlanAttributes" value="false" />
	</module>
	<module name="planscalcroute" >
		<!-- Some typical teleportation routing params are set by default, such as for walk and bike.  Setting this switch to "true" will clear them.  Note that this will also clear settings for helper modes such as for non_network_walk -->
		<param name="clearDefaultTeleportedModeParams" value="false" />
		<!-- All the modes for which the router is supposed to generate network routes (like car) -->
		<param name="networkModes" value="car" />
		<!-- strength of the randomness for the utility of money in routing under toll.  Leads to Pareto-optimal route with randomly drawn money-vs-other-attributes tradeoff. Technically the width parameter of a log-normal distribution. 3.0 seems to be a good value.  -->
		<param name="routingRandomness" value="3.0" />
		<parameterset type="teleportedModeParameters" >
			<param name="beelineDistanceFactor" value="1.3" />
			<param name="mode" value="bike" />
			<!-- Free-speed factor for a teleported mode. Travel time = teleportedModeFreespeedFactor * <freespeed car travel time>. Insert a line like this for every such mode. Please do not set teleportedModeFreespeedFactor as well as teleportedModeSpeed for the same mode, but if you do, +teleportedModeFreespeedFactor wins over teleportedModeSpeed. -->
			<param name="teleportedModeFreespeedFactor" value="null" />
			<!-- Speed for a teleported mode. Travel time = (<beeline distance> * beelineDistanceFactor) / teleportedModeSpeed. Insert a line like this for every such mode. -->
			<param name="teleportedModeSpeed" value="4.166666666666667" />
		</parameterset>
		<parameterset type="teleportedModeParameters" >
			<param name="beelineDistanceFactor" value="1.3" />
			<param name="mode" value="walk" />
			<param name="teleportedModeFreespeedFactor" value="null" />
			<param name="teleportedModeSpeed" value="0.8333333333333333" />
		</parameterset>
		<parameterset type="teleportedModeParameters" >
			<param name="beelineDistanceFactor" value="1.3" />
			<param name="mode" value="non_network_walk" />
			<param name="teleportedModeFreespeedFactor" value="null" />
			<param name="teleportedModeSpeed" value="0.8333333333333333" />
		</parameterset>
		<parameterset type="teleportedModeParameters" >
			<param name="beelineDistanceFactor" value="1.3" />
			<param name="mode" value="ride" />
			<param name="teleportedModeFreespeedFactor" value="1.0" />
			<param name="teleportedModeSpeed" value="null" />
		</parameterset>
		<parameterset type="teleportedModeParameters" >
			<param name="beelineDistanceFactor" value="1.3" />
			<param name="mode" value="pt" />
			<param name="teleportedModeFreespeedFactor" value="2.0" />
			<param name="teleportedModeSpeed" value="null" />
		</parameterset>
	</module>
	<module name="ptCounts" >
		<!-- factor by which to re-scale the simulated values.  necessary when simulation runs with something different from 100%.  needs to be adapted manually -->
		<param name="countsScaleFactor" value="1.0" />
		<!-- distance to distanceFilterCenterNode to include counting stations. The unit of distance is the Euclidean distance implied by the coordinate system -->
		<param name="distanceFilter" value="null" />
		<!-- node id for center node of distance filter -->
		<param name="distanceFilterCenterNode" value="null" />
		<!-- input file containing the alighting (getting off) counts for pt -->
		<param name="inputAlightCountsFile" value="null" />
		<!-- input file containing the boarding (getting on) counts for pt -->
		<param name="inputBoardCountsFile" value="null" />
		<!-- input file containing the occupancy counts for pt -->
		<param name="inputOccupancyCountsFile" value="null" />
		<!-- possible values: `html', `kml', `txt', `all' -->
		<param name="outputformat" value="null" />
		<!-- every how many iterations (starting with 0) counts comparisons are generated -->
		<param name="ptCountsInterval" value="10" />
	</module>
	<module name="qsim" >
		<param name="endTime" value="undefined" />
		<param name="flowCapacityFactor" value="1.0" />
		<!-- decides if waiting vehicles enter the network after or before the already driving vehicles were moved. Default: false -->
		<param name="insertingWaitingVehiclesBeforeDrivingVehicles" value="false" />
		<!-- If link dynamics is set as SeepageQ, set to false if all seep modes should perform seepage. Default is true (better option). -->
		<param name="isRestrictingSeepage" value="true" />
		<!-- If link dynamics is set as SeepageQ, set to true if seep mode do not consumes any space on the link. Default is false. -->
		<param name="isSeepModeStorageFree" value="false" />
		<!-- default: FIFO; options: FIFO PassingQ SeepageQ -->
		<param name="linkDynamics" value="FIFO" />
		<!-- The (initial) width of the links of the network. Use positive floating point values. This is used only for visualisation. -->
		<param name="linkWidth" value="30.0" />
		<!-- [comma-separated list] Defines which modes are congested modes. Technically, these are the modes that the departure handler of the netsimengine handles.  Effective cell size, effective lane width, flow capacity factor, and storage capacity factor need to be set with diligence.  Need to be vehicular modes to make sense. -->
		<param name="mainMode" value="car" />
		<!-- Shortens a link in the visualization, i.e. its start and end point are moved into towards the center. Does not affect traffic flow.  -->
		<param name="nodeOffset" value="20.0" />
		<!-- Number of threads used for the QSim.  Note that this setting is independent from the "global" threads setting.  In contrast to earlier versions, the non-parallel special version is no longer there. -->
		<param name="numberOfThreads" value="1" />
		<!-- Boolean. `true': stuck vehicles are removed, aborting the plan; `false': stuck vehicles are forced into the next link. `false' is probably the better choice. -->
		<param name="removeStuckVehicles" value="false" />
		<!-- If link dynamics is set as SeepageQ, set a seep mode. Default is bike. -->
		<param name="seepMode" value="bike" />
		<!-- Possible values: minOfEndtimeAndMobsimFinished, onlyUseEndtime -->
		<param name="simEndtimeInterpretation" value="null" />
		<!-- Options: maxOfStarttimeAndEarliestActivityEnd onlyUseStarttime  -->
		<param name="simStarttimeInterpretation" value="maxOfStarttimeAndEarliestActivityEnd" />
		<!-- snapshotStyle. One of: equiDist queue withHoles withHolesAndShowHoles kinematicWaves  -->
		<param name="snapshotStyle" value="queue" />
		<param name="snapshotperiod" value="00:00:00" />
		<param name="startTime" value="07:00:00" />
		<param name="storageCapacityFactor" value="1.0" />
		<!-- time in seconds.  Time after which the frontmost vehicle on a link is called `stuck' if it does not move. -->
		<param name="stuckTime" value="10.0" />
		<param name="timeStepSize" value="00:00:01" />
		<!-- options: queue withHoles kinematicWaves  -->
		<param name="trafficDynamics" value="queue" />
		<!-- Set this parameter to true if lanes should be used, false if not. -->
		<param name="useLanes" value="false" />
		<!-- If a route does not reference a vehicle, agents will use the vehicle with the same id as their own. -->
		<param name="usePersonIdForMissingVehicleId" value="true" />
		<!-- If false, the qsim accumulates fractional flows up to one flow unit in every time step.  If true, flows are updated only if an agent wants to enter the link or an agent is added to buffer. Default is true. -->
		<param name="usingFastCapacityUpdate" value="false" />
		<!-- Defines what happens if an agent wants to depart, but the specified vehicle is not available. One of: teleport wait exception  -->
		<param name="vehicleBehavior" value="teleport" />
		<!-- If vehicles should all be the same default vehicle, or come from the vehicles file, or something else.  Possible values:  defaultVehicle modeVehicleTypesFromVehiclesData fromVehiclesData -->
		<param name="vehiclesSource" value="defaultVehicle" />
	</module>
	<module name="strategy" >
		<!-- the external executable will be called with a config file as argument.  This is the pathname to a possible skeleton config, to which additional information will be added.  Can be null. -->
		<param name="ExternalExeConfigTemplate" value="null" />
		<!-- time out value (in seconds) after which matsim will consider the external strategy as failed -->
		<param name="ExternalExeTimeOut" value="3600" />
		<!-- root directory for temporary files generated by the external executable. Provided as a service; I don't think this is used by MATSim. -->
		<param name="ExternalExeTmpFileRootDir" value="null" />
		<!-- fraction of iterations where innovative strategies are switched off.  Something like 0.8 should be good.  E.g. if you run from iteration 400 to iteration 500, innovation is switched off at iteration 480 -->
		<param name="fractionOfIterationsToDisableInnovation" value="Infinity" />
		<!-- maximum number of plans per agent.  ``0'' means ``infinity''.  Currently (2010), ``5'' is a good number -->
		<param name="maxAgentPlanMemorySize" value="5" />
		<!-- strategyName of PlanSelector for plans removal.  Possible defaults: WorstPlanSelector SelectRandom SelectExpBetaForRemoval ChangeExpBetaForRemoval PathSizeLogitSelectorForRemoval . The current default, WorstPlanSelector is not a good choice from a discrete choice theoretical perspective. Alternatives, however, have not been systematically tested. kai, feb'12 -->
		<param name="planSelectorForRemoval" value="WorstPlanSelector" />
	</module>
	<module name="subtourModeChoice" >
		<!-- Only for backwards compatibility.  Defines if only trips from modes list should change mode, or all trips.  Options: fromAllModesToSpecifiedModes fromSpecifiedModesToSpecifiedModes  -->
		<param name="behavior" value="fromSpecifiedModesToSpecifiedModes" />
		<!-- Defines the chain-based modes, seperated by commas -->
		<param name="chainBasedModes" value="car" />
		<!-- Defines whether car availability must be considered or not. A agent has no car only if it has no license, or never access to a car -->
		<param name="considerCarAvailability" value="false" />
		<!-- Defines all the modes available, including chain-based modes, seperated by commas -->
		<param name="modes" value="car" />
	</module>
	<module name="transit" >
		<!-- The Coordinates Reference System in which the coordinates are expressed in the input file. At import, the coordinates will be converted to the coordinate system defined in "global", and willbe converted back at export. If not specified, no conversion happens. -->
		<param name="inputScheduleCRS" value="null" />
		<param name="insistingOnUsingDeprecatedAttributeFiles" value="false" />
		<!-- The type of transit routing algorithm used, may have the values: [DijkstraBased, SwissRailRaptor] -->
		<param name="routingAlgorithmType" value="SwissRailRaptor" />
		<!-- Optional input file containing additional attributes for transit lines, stored as ObjectAttributes. -->
		<param name="transitLinesAttributesFile" value="null" />
		<!-- Comma-separated list of transportation modes that are handled as transit. Defaults to 'pt'. -->
		<param name="transitModes" value="pt" />
		<!-- Input file containing the transit schedule to be simulated. -->
		<param name="transitScheduleFile" value="null" />
		<!-- Optional input file containing additional attributes for transit stop facilities, stored as ObjectAttributes. -->
		<param name="transitStopsAttributesFile" value="null" />
		<!-- Set this parameter to true if transit should be simulated, false if not. -->
		<param name="useTransit" value="false" />
		<param name="usingTransitInMobsim" value="true" />
		<!-- Input file containing the vehicles used by the departures in the transit schedule. -->
		<param name="vehiclesFile" value="null" />
	</module>
	<module name="transitRouter" >
		<!-- additional time the router allocates when a line switch happens. Can be interpreted as a 'safety' time that agents need to safely transfer from one line to another -->
		<param name="additionalTransferTime" value="0.0" />
		<!-- Factor with which direct walk generalized cost is multiplied before it is compared to the pt generalized cost.  Set to a very high value to reduce direct walk results. -->
		<param name="directWalkFactor" value="1.0" />
		<!-- step size to increase searchRadius if no stops are found -->
		<param name="extensionRadius" value="200.0" />
		<!-- maximum beeline distance between stops that agents could transfer to by walking -->
		<param name="maxBeelineWalkConnectionDistance" value="100.0" />
		<!-- the radius in which stop locations are searched, given a start or target coordinate -->
		<param name="searchRadius" value="1000.0" />
	</module>
	<module name="travelTimeCalculator" >
		<!-- (only for backwards compatibility; only used if separateModes==false && + filterModes==true)  Transport modes that will be respected by the travel time collector. 'car' is default which includes also buses from the pt simulation module. -->
		<param name="analyzedModes" value="car" />
		<param name="calculateLinkToLinkTravelTimes" value="false" />
		<param name="calculateLinkTravelTimes" value="true" />
		<!-- (only for backwards compatiblity; only used if separateModes==false)  Only modes included in analyzedModes are included. -->
		<param name="filterModes" value="false" />
		<!-- The lenght (in sec) of the time period that is splited into time bins; an additional time bin is created to aggregate all travel times collected after maxTime -->
		<param name="maxTime" value="108000" />
		<!-- (only for backwards compatibility) If false, link travel times are measured and aggregated over all vehicles using the link. -->
		<param name="separateModes" value="false" />
		<!-- How to deal with congested time bins that have no link entry events. `optimistic' assumes free speed (too optimistic); 'experimental_LastMile' is experimental and probably too pessimistic. -->
		<param name="travelTimeAggregator" value="optimistic" />
		<!-- The size of the time bin (in sec) into which the link travel times are aggregated for the router -->
		<param name="travelTimeBinSize" value="900" />
		<!-- possible values: TravelTimeCalculatorArray TravelTimeCalculatorHashMap  -->
		<param name="travelTimeCalculator" value="TravelTimeCalculatorArray" />
		<!-- How to deal with link entry times at different positions during the time bin. Currently supported: average, linearinterpolation -->
		<param name="travelTimeGetter" value="average" />
	</module>
	<module name="vehicles" >
		<param name="vehiclesFile" value="null" />
	</module>
	<module name="vspExperimental" >
		<!-- (do not use except of you have to) There was a problem with pt interaction scoring.  Some people solved it by overwriting the parameters of the pt interaction activity type.  Doing this now throws an Exception.  If you still insist on doing this, set the following to true. -->
		<param name="isAbleToOverwritePtInteractionParams" value="false" />
		<param name="isGeneratingBoardingDeniedEvent" value="false" />
		<!-- if an approximation of the opportunity cost of time is included into the radius calculation for location choice.`true' will be faster, but it is an approximation.  Default is `true'; `false' is available for backwards compatibility. -->
		<param name="isUsingOpportunityCostOfTimeForLocationChoice" value="true" />
		<param name="logitScaleParamForPlansRemoval" value="1.0" />
		<!-- Options: | ignore | info | warn | abort | .  When violating VSP defaults, this results in nothing, logfile infos, logfile warnings, or aborts.  Members of VSP should use `abort' or talk to kai. -->
		<param name="vspDefaultsCheckingLevel" value="ignore" />
		<!-- if true then writes output_events in output directory.  default is `false'. Will only work when lastIteration is multiple of events writing interval -->
		<param name="writingOutputEvents" value="true" />
	</module>

</config>

2021-08-02T17:46:29,239  INFO ControlerUtils:84 Complete config dump done.
2021-08-02T17:46:29,239  INFO ControlerUtils:85 Checking consistency of config...
2021-08-02T17:46:29,239  INFO PlanCalcScoreConfigGroup$ScoringParameterSet:1547 NO OPENING OR CLOSING TIMES DEFINED!

There is no activity type that has an opening *and* closing time (or opening time and late penalty) defined.
This usually means that the activity chains can be shifted by an arbitrary
number of hours without having an effect on the score of the plans, and thus
resulting in wrong results / traffic patterns.
If you are using MATSim without time adaptation, you can ignore this warning.


2021-08-02T17:46:29,239  INFO VspConfigConsistencyCheckerImpl:59 NOT running vsp config consistency check because vsp defaults checking level is set to IGNORE
2021-08-02T17:46:29,248  INFO ControlerUtils:87 Checking consistency of config done.
2021-08-02T17:46:29,271  WARN PrepareForSimImpl:222 'usePersonIdForMissingVehicleId' is deprecated. It will be removed soon.
2021-08-02T17:46:29,283  INFO Counter:69 [VehiclesImpl] added vehicle # 1
2021-08-02T17:46:29,283  INFO Counter:69 [VehiclesImpl] added vehicle # 2
2021-08-02T17:46:29,283  INFO Counter:69 [VehiclesImpl] added vehicle # 4
2021-08-02T17:46:29,283  INFO Counter:69 [VehiclesImpl] added vehicle # 8
2021-08-02T17:46:29,283  INFO Counter:69 [VehiclesImpl] added vehicle # 16
2021-08-02T17:46:29,284  INFO Counter:69 [VehiclesImpl] added vehicle # 32
2021-08-02T17:46:29,284  INFO Counter:69 [VehiclesImpl] added vehicle # 64
2021-08-02T17:46:29,286  INFO Counter:69 [VehiclesImpl] added vehicle # 128
2021-08-02T17:46:29,287  INFO Counter:69 [VehiclesImpl] added vehicle # 256
2021-08-02T17:46:29,291  INFO Counter:69 [VehiclesImpl] added vehicle # 512
2021-08-02T17:46:29,329  INFO Counter:69 [VehiclesImpl] added vehicle # 1024
2021-08-02T17:46:29,344  INFO Counter:69 [VehiclesImpl] added vehicle # 2048
2021-08-02T17:46:29,355  INFO Counter:69 [VehiclesImpl] added vehicle # 4096
2021-08-02T17:46:29,417  INFO Counter:69 [VehiclesImpl] added vehicle # 8192
2021-08-02T17:46:29,582  INFO NetworkImpl:163  node # 1
2021-08-02T17:46:29,583  INFO NetworkImpl:163  node # 4
2021-08-02T17:46:29,583  INFO NetworkImpl:163  node # 16
2021-08-02T17:46:29,583  INFO NetworkImpl:163  node # 64
2021-08-02T17:46:29,583  INFO NetworkImpl:163  node # 256
2021-08-02T17:46:29,585  INFO NetworkImpl:163  node # 1024
2021-08-02T17:46:29,589  INFO NetworkImpl:163  node # 4096
2021-08-02T17:46:29,594  INFO NetworkImpl:159  link # 1
2021-08-02T17:46:29,594  INFO NetworkImpl:159  link # 4
2021-08-02T17:46:29,594  INFO NetworkImpl:159  link # 16
2021-08-02T17:46:29,595  INFO NetworkImpl:159  link # 64
2021-08-02T17:46:29,596  INFO NetworkImpl:159  link # 256
2021-08-02T17:46:29,600  INFO NetworkImpl:159  link # 1024
2021-08-02T17:46:29,613  INFO NetworkImpl:159  link # 4096
2021-08-02T17:46:29,667  INFO NetworkImpl:159  link # 16384
2021-08-02T17:46:29,804  WARN RandomizingTimeDistanceTravelDisutilityFactory:112 There will be no routing randomness. The randomization of the travel disutility requires the monetary distance rate to be different than zero. Continuing anyway.
2021-08-02T17:46:29,804  WARN RandomizingTimeDistanceTravelDisutilityFactory:117 There will be no routing randomness. The randomization of the travel disutility requires the travel time cost rate to be different than zero. Continuing anyway.
2021-08-02T17:46:29,806  INFO RandomizingTimeDistanceTravelDisutilityFactory:85  sigma: 3.0; resulting normalization: 0.011108996538242306
2021-08-02T17:46:29,828  INFO RandomizingTimeDistanceTravelDisutilityFactory:85  sigma: 3.0; resulting normalization: 0.011108996538242306
2021-08-02T17:46:29,906  INFO Counter:69 [PersonPrepareForSim] handled person # 1
2021-08-02T17:46:29,906  INFO Counter:69 [PersonPrepareForSim] handled person # 2
2021-08-02T17:46:29,907  INFO Counter:69 [PersonPrepareForSim] handled person # 4
2021-08-02T17:46:29,907  INFO Counter:69 [PersonPrepareForSim] handled person # 8
2021-08-02T17:46:29,907  INFO Counter:69 [PersonPrepareForSim] handled person # 16
2021-08-02T17:46:29,909  INFO Counter:69 [PersonPrepareForSim] handled person # 32
2021-08-02T17:46:29,912  INFO Counter:69 [PersonPrepareForSim] handled person # 64
2021-08-02T17:46:29,921  INFO Counter:69 [PersonPrepareForSim] handled person # 128
2021-08-02T17:46:29,933  INFO Counter:69 [PersonPrepareForSim] handled person # 256
2021-08-02T17:46:29,955  INFO Counter:69 [PersonPrepareForSim] handled person # 512
2021-08-02T17:46:29,979  INFO Counter:69 [PersonPrepareForSim] handled person # 1024
2021-08-02T17:46:30,049  INFO Counter:69 [PersonPrepareForSim] handled person # 2048
2021-08-02T17:46:30,106  INFO Counter:69 [PersonPrepareForSim] handled person # 4096
2021-08-02T17:46:30,178  INFO Counter:69 [PersonPrepareForSim] handled person # 8192
2021-08-02T17:46:30,270  INFO Counter:74 [PersonPrepareForSim] handled person # 12216
2021-08-02T17:46:30,281  INFO AbstractController:133 ###################################################
2021-08-02T17:46:30,297  INFO AbstractController:134 ### ITERATION 0 BEGINS
2021-08-02T17:46:30,298  INFO ControlerListenerManagerImpl:145 calling notifyIterationStarts on org.matsim.analysis.LegHistogramListener
2021-08-02T17:46:30,298  INFO ControlerListenerManagerImpl:145 calling notifyIterationStarts on org.matsim.analysis.LinkStatsControlerListener
2021-08-02T17:46:30,298  INFO ControlerListenerManagerImpl:145 calling notifyIterationStarts on org.matsim.core.replanning.ReplanningContextImpl
2021-08-02T17:46:30,298  INFO ControlerListenerManagerImpl:145 calling notifyIterationStarts on org.matsim.core.scoring.ScoringFunctionsForPopulation$1
2021-08-02T17:46:30,412  INFO ControlerListenerManagerImpl:145 calling notifyIterationStarts on org.matsim.core.scoring.ExperiencedPlansServiceImpl$1
2021-08-02T17:46:30,415  INFO ControlerListenerManagerImpl:148 [it.0] all ControlerIterationStartsListeners called.
2021-08-02T17:46:30,415  INFO ControlerListenerManagerImpl:224 calling notifyBeforeMobsim on org.matsim.core.controler.corelisteners.EventsHandlingImpl
2021-08-02T17:46:30,416  INFO EventsManagerImpl:190 resetting Event-Handlers
2021-08-02T17:46:30,416  INFO EventsManagerImpl:197   org.matsim.core.trafficmonitoring.TravelTimeCalculator
2021-08-02T17:46:30,416  INFO EventsManagerImpl:197   org.matsim.core.scoring.EventsToLegsAndActivities
2021-08-02T17:46:30,416  INFO EventsManagerImpl:197   org.matsim.analysis.VolumesAnalyzer
2021-08-02T17:46:30,417  INFO EventsManagerImpl:197   org.matsim.core.scoring.ScoringFunctionsForPopulation
2021-08-02T17:46:30,417  INFO EventsManagerImpl:197   org.matsim.analysis.LegHistogram
2021-08-02T17:46:30,424  INFO EventsManagerImpl:197   org.matsim.analysis.CalcLegTimes
2021-08-02T17:46:30,427  INFO EventsManagerImpl:160 adding Event-Handler: org.matsim.core.events.algorithms.EventWriterXML
2021-08-02T17:46:30,427  INFO EventsManagerImpl:166   org.matsim.core.events.algorithms.EventWriter
2021-08-02T17:46:30,427  INFO EventsManagerImpl:166   org.matsim.core.events.handler.BasicEventHandler
2021-08-02T17:46:30,427  INFO EventsManagerImpl:227     > org.matsim.api.core.v01.events.Event
2021-08-02T17:46:30,427  INFO EventsManagerImpl:176 
2021-08-02T17:46:30,427  INFO EventsManagerImpl:160 adding Event-Handler: org.matsim.core.events.algorithms.EventWriterXML
2021-08-02T17:46:30,427  INFO EventsManagerImpl:166   org.matsim.core.events.algorithms.EventWriter
2021-08-02T17:46:30,427  INFO EventsManagerImpl:166   org.matsim.core.events.handler.BasicEventHandler
2021-08-02T17:46:30,427  INFO EventsManagerImpl:227     > org.matsim.api.core.v01.events.Event
2021-08-02T17:46:30,427  INFO EventsManagerImpl:176 
2021-08-02T17:46:30,427  INFO ControlerListenerManagerImpl:224 calling notifyBeforeMobsim on org.matsim.core.controler.corelisteners.PlansDumpingImpl
2021-08-02T17:46:30,427  INFO PlansDumpingImpl:76 dumping plans...
2021-08-02T17:46:30,459  INFO Counter:69 [PopulationWriter] dumped person # 1
2021-08-02T17:46:30,463  INFO Counter:69 [PopulationWriter] dumped person # 2
2021-08-02T17:46:30,464  INFO Counter:69 [PopulationWriter] dumped person # 4
2021-08-02T17:46:30,469  INFO Counter:69 [PopulationWriter] dumped person # 8
2021-08-02T17:46:30,470  INFO Counter:69 [PopulationWriter] dumped person # 16
2021-08-02T17:46:30,472  INFO Counter:69 [PopulationWriter] dumped person # 32
2021-08-02T17:46:30,495  INFO Counter:69 [PopulationWriter] dumped person # 64
2021-08-02T17:46:30,503  INFO Counter:69 [PopulationWriter] dumped person # 128
2021-08-02T17:46:30,516  INFO Counter:69 [PopulationWriter] dumped person # 256
2021-08-02T17:46:30,536  INFO Counter:69 [PopulationWriter] dumped person # 512
2021-08-02T17:46:30,595  INFO Counter:69 [PopulationWriter] dumped person # 1024
2021-08-02T17:46:30,654  INFO Counter:69 [PopulationWriter] dumped person # 2048
2021-08-02T17:46:30,765  INFO Counter:69 [PopulationWriter] dumped person # 4096
2021-08-02T17:46:30,903  INFO Counter:69 [PopulationWriter] dumped person # 8192
2021-08-02T17:46:31,044  INFO PopulationWriter:144 Population written to: ./output/ITERS/it.0/0.plans.xml.gz
2021-08-02T17:46:31,045  INFO Counter:74 [PopulationWriter] dumped person # 12216
2021-08-02T17:46:31,045  INFO PlansDumpingImpl:93 finished plans dump.
2021-08-02T17:46:31,046  INFO ControlerListenerManagerImpl:229 calling notifyBeforeMobsim on org.matsim.core.population.VspPlansCleaner
2021-08-02T17:46:31,073  INFO ControlerListenerManagerImpl:232 [it.0] all ControlerBeforeMobsimListeners called.
2021-08-02T17:46:31,080  INFO RandomizingTimeDistanceTravelDisutilityFactory:85  sigma: 3.0; resulting normalization: 0.011108996538242306
2021-08-02T17:46:31,086  INFO RandomizingTimeDistanceTravelDisutilityFactory:85  sigma: 3.0; resulting normalization: 0.011108996538242306
2021-08-02T17:46:31,094  INFO Counter:69 [PersonPrepareForSim] handled person # 1
2021-08-02T17:46:31,095  INFO Counter:69 [PersonPrepareForSim] handled person # 2
2021-08-02T17:46:31,095  INFO Counter:69 [PersonPrepareForSim] handled person # 4
2021-08-02T17:46:31,095  INFO Counter:69 [PersonPrepareForSim] handled person # 8
2021-08-02T17:46:31,095  INFO Counter:69 [PersonPrepareForSim] handled person # 16
2021-08-02T17:46:31,096  INFO Counter:69 [PersonPrepareForSim] handled person # 32
2021-08-02T17:46:31,096  INFO Counter:69 [PersonPrepareForSim] handled person # 64
2021-08-02T17:46:31,096  INFO Counter:69 [PersonPrepareForSim] handled person # 128
2021-08-02T17:46:31,096  INFO Counter:69 [PersonPrepareForSim] handled person # 256
2021-08-02T17:46:31,097  INFO Counter:69 [PersonPrepareForSim] handled person # 512
2021-08-02T17:46:31,098  INFO Counter:69 [PersonPrepareForSim] handled person # 1024
2021-08-02T17:46:31,100  INFO Counter:69 [PersonPrepareForSim] handled person # 2048
2021-08-02T17:46:31,117  INFO Counter:69 [PersonPrepareForSim] handled person # 4096
2021-08-02T17:46:31,120  INFO Counter:69 [PersonPrepareForSim] handled person # 8192
2021-08-02T17:46:31,134  INFO Counter:74 [PersonPrepareForSim] handled person # 12216
2021-08-02T17:46:31,255  INFO MobsimListenerManager:49 calling addQueueSimulationListener
2021-08-02T17:46:31,256  INFO MobsimListenerManager:53   assigned class org.matsim.core.mobsim.framework.listeners.MobsimListener to interface org.matsim.core.mobsim.framework.listeners.MobsimBeforeCleanupListener
2021-08-02T17:46:31,256  INFO MobsimListenerManager:53   assigned class org.matsim.core.mobsim.framework.listeners.MobsimListener to interface org.matsim.vis.snapshotwriters.SnapshotWriterManager
2021-08-02T17:46:31,256  INFO MobsimListenerManager:53   assigned class org.matsim.core.mobsim.framework.listeners.MobsimListener to interface org.matsim.core.mobsim.framework.listeners.MobsimAfterSimStepListener
2021-08-02T17:46:31,256  INFO MobsimListenerManager:53   assigned class org.matsim.core.mobsim.framework.listeners.MobsimListener to interface org.matsim.core.mobsim.framework.listeners.MobsimListener
2021-08-02T17:46:31,256  INFO MobsimListenerManager:53   assigned class org.matsim.core.mobsim.framework.listeners.MobsimListener to interface org.matsim.core.mobsim.framework.listeners.MobsimInitializedListener
2021-08-02T17:46:31,613  INFO QSimProvider:115 Added MobsimEngine class org.matsim.core.mobsim.qsim.ActivityEngineDefaultImpl
2021-08-02T17:46:31,616  INFO QSimProvider:121 Added Activityhandler class org.matsim.core.mobsim.qsim.ActivityEngineDefaultImpl
2021-08-02T17:46:31,639  INFO QSimProvider:127 Added DepartureHandler class org.matsim.core.mobsim.qsim.qnetsimengine.VehicularDepartureHandler
2021-08-02T17:46:31,639  INFO QSimProvider:115 Added MobsimEngine class org.matsim.core.mobsim.qsim.qnetsimengine.QNetsimEngineWithThreadpool
2021-08-02T17:46:31,639  INFO QSimProvider:115 Added MobsimEngine class org.matsim.core.mobsim.qsim.DefaultTeleportationEngine
2021-08-02T17:46:31,639  INFO QSimProvider:127 Added DepartureHandler class org.matsim.core.mobsim.qsim.DefaultTeleportationEngine
2021-08-02T17:46:31,640  INFO QSimProvider:133 Added AgentSource class org.matsim.core.mobsim.qsim.agents.PopulationAgentSource
2021-08-02T17:46:31,640  INFO MobsimListenerManager:49 calling addQueueSimulationListener
2021-08-02T17:46:31,640  INFO MobsimListenerManager:53   assigned class org.matsim.core.mobsim.framework.listeners.MobsimListener to interface org.matsim.core.mobsim.qsim.messagequeueengine.MessageQueueEngine
2021-08-02T17:46:31,640  INFO MobsimListenerManager:53   assigned class org.matsim.core.mobsim.framework.listeners.MobsimListener to interface org.matsim.core.mobsim.framework.listeners.MobsimBeforeSimStepListener
2021-08-02T17:46:31,641  INFO MobsimListenerManager:53   assigned class org.matsim.core.mobsim.framework.listeners.MobsimListener to interface org.matsim.core.mobsim.framework.listeners.MobsimListener
2021-08-02T17:46:31,641  INFO QSimProvider:139 Added MobsimListener class org.matsim.core.mobsim.qsim.messagequeueengine.MessageQueueEngine
2021-08-02T17:46:31,668  INFO PopulationUtils:1194 adding scenario element for allpersons container
2021-08-02T17:46:31,669  INFO PopulationImpl:105  person # 1
2021-08-02T17:46:31,669  INFO PopulationImpl:105  person # 4
2021-08-02T17:46:31,674  INFO PopulationImpl:105  person # 16
2021-08-02T17:46:31,680  INFO PopulationImpl:105  person # 64
2021-08-02T17:46:31,682  INFO PopulationImpl:105  person # 256
2021-08-02T17:46:31,689  INFO PopulationImpl:105  person # 1024
2021-08-02T17:46:31,733  INFO PopulationImpl:105  person # 4096
2021-08-02T17:46:31,758  INFO VehicleUtils:324 adding scenario element for allvehicles container
2021-08-02T17:46:31,758  INFO Counter:69 [VehiclesImpl] added vehicle # 1
2021-08-02T17:46:31,758  INFO Counter:69 [VehiclesImpl] added vehicle # 2
2021-08-02T17:46:31,758  INFO Counter:69 [VehiclesImpl] added vehicle # 4
2021-08-02T17:46:31,758  INFO Counter:69 [VehiclesImpl] added vehicle # 8
2021-08-02T17:46:31,758  INFO Counter:69 [VehiclesImpl] added vehicle # 16
2021-08-02T17:46:31,759  INFO Counter:69 [VehiclesImpl] added vehicle # 32
2021-08-02T17:46:31,759  INFO Counter:69 [VehiclesImpl] added vehicle # 64
2021-08-02T17:46:31,759  INFO Counter:69 [VehiclesImpl] added vehicle # 128
2021-08-02T17:46:31,770  INFO Counter:69 [VehiclesImpl] added vehicle # 256
2021-08-02T17:46:31,772  INFO Counter:69 [VehiclesImpl] added vehicle # 512
2021-08-02T17:46:31,777  INFO Counter:69 [VehiclesImpl] added vehicle # 1024
2021-08-02T17:46:31,790  INFO Counter:69 [VehiclesImpl] added vehicle # 2048
2021-08-02T17:46:31,806  INFO Counter:69 [VehiclesImpl] added vehicle # 4096
2021-08-02T17:46:31,919  INFO Counter:69 [VehiclesImpl] added vehicle # 8192
2021-08-02T17:46:32,002  INFO AbstractQNetsimEngine:427 Assigned 12592 nodes and 33657 links to QSimEngineRunner #0
2021-08-02T17:46:32,042  INFO EventsManagerImpl:137  event # 1
2021-08-02T17:46:32,045  INFO EventsManagerImpl:137  event # 4
2021-08-02T17:46:32,071  INFO AbstractQNetsimEngine:365 SIMULATION (QNetsimEngine) AT 07:00:01 : #links=1 #nodes=1
2021-08-02T17:46:32,091  INFO QSim:542 SIMULATION (NEW QSim) AT 07:00:01 : #Veh=12216 lost=0 simT=0.0s realT=0s; (s/r): 0.0
2021-08-02T17:46:32,095  INFO EventsManagerImpl:137  event # 16
2021-08-02T17:46:32,100  INFO EventsManagerImpl:137  event # 64
2021-08-02T17:46:32,131  INFO EventsManagerImpl:137  event # 256
2021-08-02T17:46:32,206  INFO EventsManagerImpl:137  event # 1024
2021-08-02T17:46:32,350  INFO EventsManagerImpl:137  event # 4096
2021-08-02T17:46:32,870  INFO EventsManagerImpl:137  event # 16384
2021-08-02T17:46:33,039  INFO AbstractQNetsimEngine:365 SIMULATION (QNetsimEngine) AT 08:00:00 : #links=12 #nodes=2
2021-08-02T17:46:33,040  INFO QSim:542 SIMULATION (NEW QSim) AT 08:00:00 : #Veh=10975 lost=0 simT=3599.0s realT=1s; (s/r): 3599.0
2021-08-02T17:46:33,740  INFO AbstractQNetsimEngine:365 SIMULATION (QNetsimEngine) AT 09:00:00 : #links=5 #nodes=0
2021-08-02T17:46:33,740  INFO QSim:542 SIMULATION (NEW QSim) AT 09:00:00 : #Veh=9820 lost=0 simT=7199.0s realT=2s; (s/r): 3599.5
2021-08-02T17:46:34,228  INFO AbstractQNetsimEngine:365 SIMULATION (QNetsimEngine) AT 10:00:00 : #links=10 #nodes=1
2021-08-02T17:46:34,229  INFO QSim:542 SIMULATION (NEW QSim) AT 10:00:00 : #Veh=8694 lost=0 simT=10799.0s realT=2s; (s/r): 5399.5
2021-08-02T17:46:34,495  INFO EventsManagerImpl:137  event # 65536
2021-08-02T17:46:34,764  INFO AbstractQNetsimEngine:365 SIMULATION (QNetsimEngine) AT 11:00:00 : #links=7 #nodes=2
2021-08-02T17:46:34,764  INFO QSim:542 SIMULATION (NEW QSim) AT 11:00:00 : #Veh=7638 lost=0 simT=14399.0s realT=3s; (s/r): 4799.666666666667
2021-08-02T17:46:35,172  INFO AbstractQNetsimEngine:365 SIMULATION (QNetsimEngine) AT 12:00:00 : #links=8 #nodes=3
2021-08-02T17:46:35,172  INFO QSim:542 SIMULATION (NEW QSim) AT 12:00:00 : #Veh=6582 lost=0 simT=17999.0s realT=3s; (s/r): 5999.666666666667
2021-08-02T17:46:35,564  INFO AbstractQNetsimEngine:365 SIMULATION (QNetsimEngine) AT 13:00:00 : #links=12 #nodes=2
2021-08-02T17:46:35,566  INFO QSim:542 SIMULATION (NEW QSim) AT 13:00:00 : #Veh=5499 lost=0 simT=21599.0s realT=4s; (s/r): 5399.75
2021-08-02T17:46:36,156  INFO AbstractQNetsimEngine:365 SIMULATION (QNetsimEngine) AT 14:00:00 : #links=13 #nodes=4
2021-08-02T17:46:36,158  INFO QSim:542 SIMULATION (NEW QSim) AT 14:00:00 : #Veh=4412 lost=0 simT=25199.0s realT=4s; (s/r): 6299.75
2021-08-02T17:46:36,652  INFO AbstractQNetsimEngine:365 SIMULATION (QNetsimEngine) AT 15:00:00 : #links=14 #nodes=3
2021-08-02T17:46:36,654  INFO QSim:542 SIMULATION (NEW QSim) AT 15:00:00 : #Veh=3256 lost=0 simT=28799.0s realT=5s; (s/r): 5759.8
2021-08-02T17:46:37,124  INFO AbstractQNetsimEngine:365 SIMULATION (QNetsimEngine) AT 16:00:00 : #links=12 #nodes=3
2021-08-02T17:46:37,124  INFO QSim:542 SIMULATION (NEW QSim) AT 16:00:00 : #Veh=2183 lost=0 simT=32399.0s realT=5s; (s/r): 6479.8
2021-08-02T17:46:37,617  INFO AbstractQNetsimEngine:365 SIMULATION (QNetsimEngine) AT 17:00:00 : #links=17 #nodes=2
2021-08-02T17:46:37,617  INFO QSim:542 SIMULATION (NEW QSim) AT 17:00:00 : #Veh=1105 lost=0 simT=35999.0s realT=6s; (s/r): 5999.833333333333
2021-08-02T17:46:38,024  INFO AbstractQNetsimEngine:365 SIMULATION (QNetsimEngine) AT 18:00:00 : #links=13 #nodes=2
2021-08-02T17:46:38,025  INFO QSim:542 SIMULATION (NEW QSim) AT 18:00:00 : #Veh=14 lost=0 simT=39599.0s realT=6s; (s/r): 6599.833333333333
2021-08-02T17:46:38,138  INFO AbstractController$9:234 ### ITERATION 0 fires after mobsim event
2021-08-02T17:46:38,138  INFO ControlerListenerManagerImpl:248 calling notifyAfterMobsim on org.matsim.analysis.LegTimesControlerListener
2021-08-02T17:46:38,154  INFO LegTimesControlerListener:50 [0] average trip (probably: leg) duration is: 37 seconds = 00:00:37
2021-08-02T17:46:38,154  INFO ControlerListenerManagerImpl:248 calling notifyAfterMobsim on org.matsim.core.events.MobsimScopeEventHandling
2021-08-02T17:46:38,155  INFO ControlerListenerManagerImpl:248 calling notifyAfterMobsim on org.matsim.core.scoring.EventsToActivities$1
2021-08-02T17:46:38,156  INFO Gbl:191 Thread performance: Thread=class org.matsim.core.events.SimStepParallelEventsManagerImpl$ProcessEventsRunnable0  cpu-time=1.756400476sec
2021-08-02T17:46:38,201  INFO ControlerListenerManagerImpl:251 [it.0] all ControlerAfterMobsimListeners called.
2021-08-02T17:46:38,203  INFO AbstractController$4:159 ### ITERATION 0 fires scoring event
2021-08-02T17:46:38,203  INFO ControlerListenerManagerImpl:183 calling notifyScoring on org.matsim.core.scoring.PlansScoringImpl
2021-08-02T17:46:38,224  INFO NewScoreAssignerImpl:57 it: 0 msaStart: null
2021-08-02T17:46:38,235  INFO ControlerListenerManagerImpl:194 [it.0] all ControlerScoringListeners called.
2021-08-02T17:46:38,236  INFO AbstractController$5:167 ### ITERATION 0 fires iteration end event
2021-08-02T17:46:38,237  INFO ControlerListenerManagerImpl:160 calling notifyIterationEnds on org.matsim.core.controler.corelisteners.EventsHandlingImpl
2021-08-02T17:46:38,238  INFO EventsManagerImpl:181 removing Event-Handler: org.matsim.core.events.algorithms.EventWriterXML
2021-08-02T17:46:38,238  INFO EventsManagerImpl:181 removing Event-Handler: org.matsim.core.events.algorithms.EventWriterXML
2021-08-02T17:46:38,238  INFO ControlerListenerManagerImpl:160 calling notifyIterationEnds on org.matsim.core.scoring.PlansScoringImpl
2021-08-02T17:46:38,252  INFO ControlerListenerManagerImpl:167 calling notifyIterationEnds on org.matsim.counts.CountsControlerListener
2021-08-02T17:46:38,252  INFO ControlerListenerManagerImpl:167 calling notifyIterationEnds on org.matsim.analysis.ModeStatsControlerListener
2021-08-02T17:46:38,336  INFO ModeStatsControlerListener:130 Mode shares over all 12216.0 trips found. MainModeIdentifier: class org.matsim.core.router.RoutingModeMainModeIdentifier
2021-08-02T17:46:38,344  INFO ModeStatsControlerListener:137 -- mode share of mode car = 1.0
2021-08-02T17:46:38,345  INFO ControlerListenerManagerImpl:167 calling notifyIterationEnds on org.matsim.analysis.ScoreStatsControlerListener
2021-08-02T17:46:38,360  INFO ScoreStatsControlerListener:181 -- avg. score of the executed plan of each agent: 125.72662496311396
2021-08-02T17:46:38,361  INFO ScoreStatsControlerListener:182 -- avg. score of the worst plan of each agent: 125.72662496311396
2021-08-02T17:46:38,362  INFO ScoreStatsControlerListener:183 -- avg. of the avg. plan score per agent: 125.72662496311396
2021-08-02T17:46:38,362  INFO ScoreStatsControlerListener:184 -- avg. score of the best plan of each agent: 125.72662496311396
2021-08-02T17:46:38,384  INFO ControlerListenerManagerImpl:167 calling notifyIterationEnds on org.matsim.analysis.IterationTravelStatsControlerListener
2021-08-02T17:46:38,471  INFO TravelDistanceStats:143 -- average leg distance per plan (executed plans only): 212.09542517673555 meters
2021-08-02T17:46:38,471  INFO TravelDistanceStats:144 average leg distance per Person (executed plans only): 212.09542517673555 meters (statistic on all 12216 legs which have a finite distance)
2021-08-02T17:46:38,471  INFO TravelDistanceStats:145 -- average trip distance per plan (executed plans only): 212.09542517673555 meters
2021-08-02T17:46:38,471  INFO TravelDistanceStats:146 average trip distance per Person (executed plans only): 212.09542517673555 meters (statistic on all 12216 trips which have a finite distance)
2021-08-02T17:46:38,492  INFO TravelDistanceStats:147 (TravelDistanceStats takes an average over all legs where the simulation reports travelled (network) distances
2021-08-02T17:46:38,492  INFO TravelDistanceStats:148 (and teleported legs whose route contains a distance.)
2021-08-02T17:46:39,731  INFO ControlerListenerManagerImpl:167 calling notifyIterationEnds on org.matsim.analysis.LegHistogramListener
2021-08-02T17:46:39,749  INFO LegHistogramListener:72 number of legs:	12216	100%
2021-08-02T17:46:39,755  INFO LegHistogramListener:79 number of car legs:	12216	100.0%
2021-08-02T17:46:40,033  INFO ControlerListenerManagerImpl:167 calling notifyIterationEnds on org.matsim.analysis.LinkStatsControlerListener
2021-08-02T17:46:40,035  INFO ControlerListenerManagerImpl:171 [it.0] all ControlerIterationEndsListeners called.
2021-08-02T17:46:40,199  INFO AbstractController:181 ### ITERATION 0 ENDS
2021-08-02T17:46:40,199  INFO AbstractController:182 ###################################################
2021-08-02T17:46:40,199  INFO MatsimRuntimeModifications:79 S H U T D O W N   ---   start shutdown.
2021-08-02T17:46:40,200  INFO ControlerListenerManagerImpl:121 calling notifyShutdown on org.matsim.core.controler.corelisteners.EventsHandlingImpl
2021-08-02T17:46:40,200  INFO ControlerListenerManagerImpl:121 calling notifyShutdown on org.matsim.core.controler.corelisteners.DumpDataAtEndImpl
2021-08-02T17:46:40,225  INFO Counter:69 [PopulationWriter] dumped person # 1
2021-08-02T17:46:40,228  INFO Counter:69 [PopulationWriter] dumped person # 2
2021-08-02T17:46:40,234  INFO Counter:69 [PopulationWriter] dumped person # 4
2021-08-02T17:46:40,235  INFO Counter:69 [PopulationWriter] dumped person # 8
2021-08-02T17:46:40,237  INFO Counter:69 [PopulationWriter] dumped person # 16
2021-08-02T17:46:40,239  INFO Counter:69 [PopulationWriter] dumped person # 32
2021-08-02T17:46:40,239  INFO Counter:69 [PopulationWriter] dumped person # 64
2021-08-02T17:46:40,241  INFO Counter:69 [PopulationWriter] dumped person # 128
2021-08-02T17:46:40,245  INFO Counter:69 [PopulationWriter] dumped person # 256
2021-08-02T17:46:40,252  INFO Counter:69 [PopulationWriter] dumped person # 512
2021-08-02T17:46:40,269  INFO Counter:69 [PopulationWriter] dumped person # 1024
2021-08-02T17:46:40,309  INFO Counter:69 [PopulationWriter] dumped person # 2048
2021-08-02T17:46:40,355  INFO Counter:69 [PopulationWriter] dumped person # 4096
2021-08-02T17:46:40,452  INFO Counter:69 [PopulationWriter] dumped person # 8192
2021-08-02T17:46:40,546  INFO PopulationWriter:144 Population written to: ./output/output_plans.xml.gz
2021-08-02T17:46:40,548  INFO Counter:74 [PopulationWriter] dumped person # 12216
2021-08-02T17:46:40,550  INFO NetworkWriter:69 Writing network to file: ./output/output_network.xml.gz...
2021-08-02T17:46:40,889  INFO NetworkWriter:72 done.
2021-08-02T17:46:40,895  INFO Config:572 setting context to [file:/mnt/f04d319a-f8a6-4b77-a85b-6201eb84ea7c/Mobilidade_Urbana/Simulacoes/Delfim-Juvenal/]
2021-08-02T17:46:40,902  INFO Config:572 setting context to [file:/mnt/f04d319a-f8a6-4b77-a85b-6201eb84ea7c/Mobilidade_Urbana/Simulacoes/Delfim-Juvenal/]
2021-08-02T17:46:40,910  INFO Config:572 setting context to [file:/mnt/f04d319a-f8a6-4b77-a85b-6201eb84ea7c/Mobilidade_Urbana/Simulacoes/Delfim-Juvenal/]
2021-08-02T17:46:40,916  INFO Config:572 setting context to [file:/mnt/f04d319a-f8a6-4b77-a85b-6201eb84ea7c/Mobilidade_Urbana/Simulacoes/Delfim-Juvenal/]
2021-08-02T17:46:40,927  INFO Config:572 setting context to [file:/mnt/f04d319a-f8a6-4b77-a85b-6201eb84ea7c/Mobilidade_Urbana/Simulacoes/Delfim-Juvenal/]
2021-08-02T17:46:40,933  INFO Config:572 setting context to [file:/mnt/f04d319a-f8a6-4b77-a85b-6201eb84ea7c/Mobilidade_Urbana/Simulacoes/Delfim-Juvenal/]
2021-08-02T17:46:40,938  INFO Config:572 setting context to [file:/mnt/f04d319a-f8a6-4b77-a85b-6201eb84ea7c/Mobilidade_Urbana/Simulacoes/Delfim-Juvenal/]
2021-08-02T17:46:40,955  INFO Config:572 setting context to [file:/mnt/f04d319a-f8a6-4b77-a85b-6201eb84ea7c/Mobilidade_Urbana/Simulacoes/Delfim-Juvenal/]
2021-08-02T17:46:40,961  INFO Config:572 setting context to [file:/mnt/f04d319a-f8a6-4b77-a85b-6201eb84ea7c/Mobilidade_Urbana/Simulacoes/Delfim-Juvenal/]
2021-08-02T17:46:40,965  INFO Config:572 setting context to [file:/mnt/f04d319a-f8a6-4b77-a85b-6201eb84ea7c/Mobilidade_Urbana/Simulacoes/Delfim-Juvenal/]
2021-08-02T17:46:40,970  INFO Config:572 setting context to [file:/mnt/f04d319a-f8a6-4b77-a85b-6201eb84ea7c/Mobilidade_Urbana/Simulacoes/Delfim-Juvenal/]
2021-08-02T17:46:40,974  INFO Config:572 setting context to [file:/mnt/f04d319a-f8a6-4b77-a85b-6201eb84ea7c/Mobilidade_Urbana/Simulacoes/Delfim-Juvenal/]
2021-08-02T17:46:40,980  INFO Config:572 setting context to [file:/mnt/f04d319a-f8a6-4b77-a85b-6201eb84ea7c/Mobilidade_Urbana/Simulacoes/Delfim-Juvenal/]
2021-08-02T17:46:40,989  INFO Config:572 setting context to [file:/mnt/f04d319a-f8a6-4b77-a85b-6201eb84ea7c/Mobilidade_Urbana/Simulacoes/Delfim-Juvenal/]
2021-08-02T17:46:40,994  INFO Config:572 setting context to [file:/mnt/f04d319a-f8a6-4b77-a85b-6201eb84ea7c/Mobilidade_Urbana/Simulacoes/Delfim-Juvenal/]
2021-08-02T17:46:41,000  INFO Config:572 setting context to [file:/mnt/f04d319a-f8a6-4b77-a85b-6201eb84ea7c/Mobilidade_Urbana/Simulacoes/Delfim-Juvenal/]
2021-08-02T17:46:41,004  INFO Config:572 setting context to [file:/mnt/f04d319a-f8a6-4b77-a85b-6201eb84ea7c/Mobilidade_Urbana/Simulacoes/Delfim-Juvenal/]
2021-08-02T17:46:41,014  INFO Config:572 setting context to [file:/mnt/f04d319a-f8a6-4b77-a85b-6201eb84ea7c/Mobilidade_Urbana/Simulacoes/Delfim-Juvenal/]
2021-08-02T17:46:41,032  INFO Config:572 setting context to [file:/mnt/f04d319a-f8a6-4b77-a85b-6201eb84ea7c/Mobilidade_Urbana/Simulacoes/Delfim-Juvenal/]
2021-08-02T17:46:41,036  INFO Config:572 setting context to [file:/mnt/f04d319a-f8a6-4b77-a85b-6201eb84ea7c/Mobilidade_Urbana/Simulacoes/Delfim-Juvenal/]
2021-08-02T17:46:41,040  INFO Config:572 setting context to [file:/mnt/f04d319a-f8a6-4b77-a85b-6201eb84ea7c/Mobilidade_Urbana/Simulacoes/Delfim-Juvenal/]
2021-08-02T17:46:41,045  INFO Config:572 setting context to [file:/mnt/f04d319a-f8a6-4b77-a85b-6201eb84ea7c/Mobilidade_Urbana/Simulacoes/Delfim-Juvenal/]
2021-08-02T17:46:41,049  INFO Config:572 setting context to [file:/mnt/f04d319a-f8a6-4b77-a85b-6201eb84ea7c/Mobilidade_Urbana/Simulacoes/Delfim-Juvenal/]
2021-08-02T17:46:41,053  INFO Config:572 setting context to [file:/mnt/f04d319a-f8a6-4b77-a85b-6201eb84ea7c/Mobilidade_Urbana/Simulacoes/Delfim-Juvenal/]
2021-08-02T17:46:41,058  INFO Config:572 setting context to [file:/mnt/f04d319a-f8a6-4b77-a85b-6201eb84ea7c/Mobilidade_Urbana/Simulacoes/Delfim-Juvenal/]
2021-08-02T17:46:41,066  INFO MatsimVehicleWriter:54 about to write vehicles to: ./output/output_vehicles.xml.gz
2021-08-02T17:46:41,066  INFO VehicleWriterV2:63 about to write vehicles to: ./output/output_vehicles.xml.gz
2021-08-02T17:46:41,107  INFO MatsimVehicleWriter:54 about to write vehicles to: ./output/output_allVehicles.xml.gz
2021-08-02T17:46:41,107  INFO VehicleWriterV2:63 about to write vehicles to: ./output/output_allVehicles.xml.gz
2021-08-02T17:46:41,158  INFO HouseholdsWriterV10:66 about to write  households to: ./output/output_households.xml.gz
2021-08-02T17:46:41,160  INFO Counter:74 [HouseholdsWriter] wrote household # 0
2021-08-02T17:46:41,168  INFO ControlerListenerManagerImpl:126 calling notifyShutdown on org.matsim.analysis.ScoreStatsControlerListener
2021-08-02T17:46:41,170  INFO ControlerListenerManagerImpl:126 calling notifyShutdown on org.matsim.analysis.IterationTravelStatsControlerListener
2021-08-02T17:46:41,171  INFO IterationTravelStatsControlerListener:104 Writing all Person and Attributes to personscsv
2021-08-02T17:46:41,251  INFO IterationTravelStatsControlerListener:148 ...done
2021-08-02T17:46:41,251  INFO ControlerListenerManagerImpl:129 all ControlerShutdownListeners called.
2021-08-02T17:46:41,251  INFO MatsimRuntimeModifications:102 S H U T D O W N   ---   shutdown completed.
2021-08-02T17:46:41,251  INFO OutputDirectoryLogging:170 closing the logfile, i.e. messages sent to the logger after this message are not written to the logfile.
